/*--------------------------------*- C++ -*----------------------------------*\
  =========                 |
  \\      /  F ield         | OpenFOAM: The Open Source CFD Toolbox
   \\    /   O peration     | Website:  https://openfoam.org
    \\  /    A nd           | Version:  6
     \\/     M anipulation  |
\*---------------------------------------------------------------------------*/
FoamFile
{
    version     2.0;
    format      ascii;
    class       dictionary;
    location    "constant";
    object      averagingProperties;
}
// * * * * * * * * * * * * * * * * * * * * * * * * * * * * * * * * * * * * * //

#include        "./system/userConfigValues"

// Formula simple:
// tStartAveraging: endTime(transient) + 10*deltaT + 0.5*deltaT
// tStartTKEAveraging > tStartAveraging
// tStartTKEAveraging: endTime(lpt) + deltaT(lpt) + 10*deltaT + 0.5*deltaT

tStartAveraging              [0 0 1 0 0 0 0] $valTStartAveraging; //insert start of time-averaging here

tStartTKEAveraging              [0 0 1 0 0 0 0] $valTStartTKEAveraging; //insert start of time-averaging here

computeBudget              [0 0 0 0 0 0 0] 1; // 1 Si 0 No

qDNSOrLES              [0 0 0 0 0 0 0] 1; // 1 es QDNS 2 es LES 

LPT             [0 0 0 0 0 0 0]   0; // 0 No, 1 Si

/*
// writeTine debe ser divisible por (deltaT*nAveragingTimeSteps)
nAveragingTimeSteps              [0 0 0 0 0 0 0] 1; // inserte el intervalo nAveragingTimeSteps de promediado
*/

// ************************************************************************* //
